LTspice 24.1.9 for Windows
Circuit: C:\Users\Mohammad Amash\Documents\LTspice\Draft2.net
Start Time: Thu Jun 19 11:36:14 2025
solver = Normal
Maximum thread count: 12
tnom = 27
temp = 27
method = trap
Direct Newton iteration for .op point succeeded.
Total elapsed time: 0.042 seconds.

Files loaded:
C:\Users\Mohammad Amash\Documents\LTspice\Draft2.net

